_cell_length_a                         25.7471371337
_cell_length_b                         25.7821679969
_cell_length_c                         25.7131410602
_cell_angle_alpha 90.0
_cell_angle_beta 90.0
_cell_angle_gamma 90.0
_symmetry_space_group_name_H-M         'P 1'
_symmetry_Int_Tables_number            1
loop_
_symmetry_equiv_pos_as_xyz
   'x, y, z'

loop_
_atom_site_label
_atom_site_fract_x 
_atom_site_fract_y
_atom_site_fract_z
_atom_site_charge
C	0.13423912111	0.964307778476	0.352772727154	-0.10308
C	0.12595583922	0.44972012992	0.849564629455	-0.10308
C	0.676519074359	0.896271769705	0.845121321162	-0.10308
C	0.70313428812	0.405400305262	0.262488801161	-0.10308
C	0.195135740462	0.972401131019	0.28544560421	-0.10308
C	0.188736046164	0.894465936099	0.839105201442	-0.10308
C	0.132480509668	0.413904735407	0.264257821594	-0.10308
C	0.703487183809	0.850861128991	0.334311853875	-0.10308
C	0.70381770678	0.339764018725	0.802270813832	-0.10308
C	0.191481763992	0.413657175501	0.335502115274	-0.10308
C	0.138327271933	0.218450297393	0.0299960546406	-0.10308
C	0.183772733679	0.621948275738	0.51694679926	-0.10308
C	0.695501278423	0.564603820457	0.0111746561513	-0.10308
C	0.631797424197	0.173968335105	0.537133678326	-0.10308
C	0.117092472198	0.12677141464	0.0391588582565	-0.10308
C	0.141249197535	0.659818021788	0.0758454709263	-0.10308
C	0.134281397665	0.243252066193	0.589423390371	-0.10308
C	0.604895295352	0.0811381557336	0.0854346388781	-0.10308
C	0.622474978182	0.595604368196	0.56269998087	-0.10308
C	0.0981891650218	0.155898029962	0.586451821261	-0.10308
C	0.123766265381	0.950991976746	0.773046683942	-0.10308
C	0.198337920723	0.46715446088	0.330625876513	-0.10306
C	0.668309721072	0.908752293421	0.246984436379	-0.10308
C	0.613700696788	0.401501223076	0.808478480501	-0.10308
C	0.134653176418	0.468337986336	0.260484328968	-0.10306
C	0.634332214341	0.835358302492	0.767511953074	-0.10308
C	0.648602302467	0.359473764619	0.342267509814	-0.10308
C	0.131692745511	0.910630348841	0.343744373025	-0.10306
C	0.203139176242	0.918744470064	0.286066522547	-0.10306
C	0.18428021606	0.390154074527	0.782206805024	-0.10308
C	0.912701537395	0.160975141352	0.849270076739	-0.10308
C	0.424188186822	0.190048883308	0.362111510699	-0.10308
C	0.958039035655	0.670844582765	0.238386292547	-0.10308
C	0.45259622584	0.681122201208	0.796993180307	-0.10308
C	0.413771886402	0.119298430979	0.296476486697	-0.10308
C	0.857261645092	0.183012520268	0.25450001281	-0.10308
C	0.359383370562	0.117437363354	0.853371144246	-0.10308
C	0.897724771431	0.596489281037	0.751030885765	-0.10308
C	0.873231577255	0.10393990854	0.308064320979	-0.10308
C	0.40420054036	0.655196557766	0.333378979098	-0.10308
C	0.627140105913	0.628394276243	0.0105432196529	-0.10308
C	0.677801492176	0.0927405619053	0.53352897895	-0.10308
C	0.150380081717	0.709887586409	0.517127142183	-0.10308
C	0.210969294911	0.723931386705	0.0723845120347	-0.10308
C	0.629017559473	0.169922932845	0.0871920470994	-0.10308
C	0.712191746356	0.624888323631	0.560864290822	-0.10308
C	0.883562137147	0.684598831775	0.784415787552	-0.10308
C	0.403914513496	0.688861036884	0.245939148436	-0.10308
C	0.363169292353	0.158612046298	0.771118551588	-0.10308
C	0.913987716672	0.132475689111	0.75675633073	-0.10308
C	0.958118001135	0.654151813621	0.332332903698	-0.10308
C	0.440502178603	0.587443405548	0.794878043793	-0.10308
C	0.686659920074	0.842236595977	0.843807777352	-0.10307
C	0.702938031704	0.350929811034	0.268466317716	-0.10307
C	0.12320740066	0.396567004464	0.853665414923	-0.10307
C	0.697618722096	0.905282506709	0.335412299283	-0.10307
C	0.708838199029	0.39480076079	0.800690504812	-0.10307
C	0.184808729419	0.948895480338	0.844177649824	-0.10307
C	0.692210271972	0.566167015571	0.0671575011191	-0.10306
C	0.624437872224	0.167721378935	0.590110640711	-0.10306
C	0.183252661516	0.619804958038	0.572302912924	-0.10306
C	0.608436179681	0.0813635471489	0.0317843400775	-0.10306
C	0.624129788198	0.594961805377	0.506272205611	-0.10306
C	0.146380646331	0.652118322747	0.0216517467725	-0.10306
C	0.673305000659	0.85439210807	0.243796401863	-0.10306
C	0.610156386841	0.346873478946	0.81450736871	-0.10306
C	0.126245132106	0.89714827435	0.770143653932	-0.10306
C	0.190447064606	0.443892468393	0.782543581456	-0.10306
C	0.624300464529	0.888340967456	0.767528192148	-0.10306
C	0.647070963409	0.414332663051	0.338156373224	-0.10306
C	0.904656794236	0.657360741898	0.235671122338	-0.10307
C	0.398484441291	0.687832663715	0.791456328754	-0.10306
C	0.857856126348	0.154191543195	0.850103075282	-0.10307
C	0.950216653629	0.600731368969	0.765659236558	-0.10307
C	0.458928813923	0.649845503076	0.329273071016	-0.10306
C	0.412606256729	0.109847463843	0.852898595434	-0.10306
C	0.129785960323	0.185167723675	0.170860461234	0.57679
C	0.128526070893	0.180746026769	0.114159453786	-0.01064
C	0.169637979752	0.664108459794	0.658917592554	0.57679
C	0.169138643845	0.664574954737	0.600709043946	-0.01064
C	0.663958226875	0.608754648738	0.148876231619	0.57679
C	0.659191001931	0.603371322564	0.0921150161387	-0.01064
C	0.633627432648	0.115540723305	0.67192935897	0.57679
C	0.64252146965	0.12358483841	0.616238411603	-0.01064
C	0.627298879372	0.126576444426	0.949843840459	0.57679
C	0.619645821083	0.125997604499	0.00488334430789	-0.01064
C	0.671377312283	0.617103521548	0.424554175573	0.57679
C	0.669622377317	0.608788862889	0.480034112155	-0.01064
C	0.123210522301	0.196849098549	0.448827478433	0.57679
C	0.117506866963	0.202466073597	0.505793681599	-0.01064
C	0.177953083242	0.683700146482	0.933531329422	0.57679
C	0.180687995823	0.686040541841	0.991338128945	-0.01064
C	0.99686023846	0.172295930255	0.296982505171	0.57679
C	0.944060110311	0.157350276267	0.284041510564	-0.01064
C	0.498135580066	0.123844090039	0.810092998533	0.57679
C	0.442181740838	0.130422938473	0.811249896517	-0.01064
C	0.0250945968095	0.657908364058	0.797464309327	0.57679
C	0.970225636807	0.647785732047	0.785654373573	-0.01064
C	0.54102055175	0.655921079215	0.280240746011	0.57679
C	0.486532932965	0.665448865349	0.284905261542	-0.01064
C	0.819490694246	0.641306283761	0.283520821631	0.57679
C	0.876300644707	0.645923204104	0.283348902892	-0.01064
C	0.306399369507	0.65271019127	0.795097747847	0.57679
C	0.363387408445	0.645214714712	0.794614142425	-0.01064
C	0.282165943741	0.181393918872	0.32337348108	0.57679
C	0.337044123348	0.168321137745	0.328118473479	-0.01064
C	0.776012189061	0.126034430224	0.809569058187	0.57679
C	0.832974775535	0.131374985821	0.807482864615	-0.01064
C	0.152924660733	0.0544670669557	0.321832176621	0.57679
C	0.166151100505	0.996807443251	0.323383913065	-0.01064
C	0.155937182454	0.530499892972	0.808971543642	0.57679
C	0.158825986373	0.474027158493	0.815578650201	-0.01064
C	0.640864444545	0.975665667285	0.80329784505	0.57679
C	0.646147623404	0.917698537636	0.806569692476	-0.01064
C	0.677776860643	0.492398287856	0.29216598159	0.57679
C	0.676102757403	0.437106835099	0.297596320035	-0.01064
C	0.162422406048	0.80989262526	0.80329036362	0.57679
C	0.160246208025	0.868000422185	0.802265160566	-0.01064
C	0.15432466807	0.327566409956	0.302017816059	0.57679
C	0.158857679749	0.386191811889	0.30137489191	-0.01064
C	0.691477976749	0.769183129586	0.286489419792	0.57679
C	0.688738169846	0.825866519152	0.288032878549	-0.01064
C	0.652973005233	0.258393862109	0.807027354438	0.57679
C	0.656162677971	0.315834697132	0.808771856198	-0.01064
C	0.125388687005	0.171726252821	0.949195908329	0.57679
C	0.12869753038	0.170476699134	0.0062381458156	-0.01064
C	0.17022155819	0.669787656847	0.429461342553	0.57679
C	0.169841648761	0.666376483898	0.487954658071	-0.01064
C	0.665868984426	0.61033682908	0.927844392276	0.57679
C	0.663495713787	0.606026618931	0.984810000724	-0.01064
C	0.655273056148	0.140967879423	0.451431284927	0.57679
C	0.654866306707	0.135116930651	0.508714309856	-0.01064
C	0.183426692277	0.69013633294	0.158730225917	0.57679
C	0.17819545178	0.690172816343	0.101829786158	-0.01064
C	0.12812642059	0.189351984646	0.672078470652	0.57679
C	0.118079746324	0.197386839072	0.615981461477	-0.01064
C	0.621920451575	0.124380416981	0.171147405837	0.57679
C	0.620917837722	0.125427518255	0.114054964472	-0.01064
C	0.661080035325	0.620212635889	0.644214576035	0.57679
C	0.665426628784	0.613709901099	0.588880783577	-0.01064
C	0.144408941088	0.034073881326	0.811518981824	0.57679
C	0.150483622124	0.97726306702	0.81001949892	-0.01064
C	0.176356298086	0.550251197173	0.287251284474	0.57679
C	0.172527948251	0.493593999066	0.291437119666	-0.01064
C	0.665425506825	0.99175466884	0.301366978547	0.57679
C	0.679061936874	0.934899240715	0.293433050111	-0.01064
C	0.667465158974	0.481402869474	0.794259434345	0.57679
C	0.663211538285	0.424598242475	0.80262194254	-0.01064
C	0.677601887598	0.757105255437	0.801780957	0.57679
C	0.667397467002	0.812816047633	0.80360562611	-0.01064
C	0.661451496363	0.271987174322	0.305767038543	0.57679
C	0.670612495741	0.328406586686	0.304855629395	-0.01064
C	0.175650285972	0.828610017706	0.310628473147	0.57679
C	0.168603283092	0.887149493842	0.312747189463	-0.01064
C	0.14782472105	0.309042627444	0.819673221985	0.57679
C	0.151968299938	0.365745615943	0.819019224426	-0.01064
C	0.99668082847	0.155401563162	0.803346556267	0.57679
C	0.939620696953	0.149721823301	0.803582513221	-0.01064
C	0.504367240741	0.140458603841	0.331719707267	0.57679
C	0.446871854333	0.153231651901	0.328882050343	-0.01064
C	0.04192704889	0.679004389326	0.285259361128	0.57679
C	0.986437435321	0.665654701583	0.284331327414	-0.01064
C	0.530567087155	0.622401963869	0.793736936091	0.57679
C	0.473824523005	0.629981066599	0.793848550469	-0.01064
C	0.782108125147	0.131477080229	0.293560139434	0.57679
C	0.838035265716	0.139193923985	0.284466593972	-0.01064
C	0.278940043749	0.151856365745	0.815005567367	0.57679
C	0.116864488903	0.131183696507	0.0919214303537	-0.10306
C	0.335900944342	0.145788548861	0.814082705716	-0.01064
C	0.806535145812	0.628245003077	0.766934898964	0.57679
C	0.862792691992	0.638804975938	0.761696269185	-0.01064
C	0.321056208568	0.68112627814	0.290758008407	0.57679
C	0.376167070596	0.675920931793	0.29029066087	-0.01064
C	0.15786311549	0.710521320283	0.57122457019	-0.10306
C	0.62370276196	0.628903577411	0.0631108852673	-0.10307
C	0.666046029752	0.0844209054345	0.586832492653	-0.10306
C	0.139770456254	0.222616152108	0.0827718201057	-0.10306
C	0.627145666457	0.173294691543	0.0317013616931	-0.10307
C	0.716121264652	0.617680629309	0.507947274367	-0.10306
C	0.129163722464	0.248622633922	0.534849990438	-0.10306
C	0.212401587967	0.71832915176	0.0173233194011	-0.10307
C	0.0977669685572	0.1574913663	0.52955872235	-0.10306
C	0.925919692884	0.110377441318	0.303688812076	-0.10307
C	0.417546242007	0.159224637842	0.772591295593	-0.10307
C	0.93775541638	0.690599153606	0.791457312347	-0.10307
C	0.910724005622	0.193159103323	0.255398231245	-0.10307
C	0.458225392135	0.685522348972	0.243452566874	-0.10307
C	0.901936733459	0.652511984813	0.330753740727	-0.10307
C	0.387091651488	0.595556794327	0.80370445066	-0.10307
C	0.368031479275	0.195685005556	0.363113384261	-0.10307
C	0.859479484685	0.129977499831	0.758765257639	-0.10307
C	0.359048850299	0.129661155801	0.294649335599	-0.10307
H	0.334648303111	0.102222148447	0.275092950756	0.1266
H	0.11406808593	0.978343262407	0.385896679051	0.1266
H	0.0987084574991	0.472748966222	0.873012560387	0.1266
H	0.682950244831	0.918200490231	0.880846797393	0.1266
H	0.728153761213	0.422425948541	0.235823217779	0.1266
H	0.214741583443	0.997252536349	0.257628258888	0.1266
H	0.210466803083	0.874725792449	0.866127276951	0.1266
H	0.108847997192	0.39329570459	0.236686737201	0.1266
H	0.724780925964	0.829627728196	0.362870848228	0.1266
H	0.737752714919	0.316695849617	0.790526391364	0.1266
H	0.220167780434	0.393655418883	0.35807338818	0.12659
H	0.14680353066	0.25276074663	0.00640874277314	0.1266
H	0.204517880239	0.59203938553	0.498299504853	0.1266
H	0.718050442948	0.544006578904	0.9894722248	0.1266
H	0.607473003409	0.20373526144	0.519511130342	0.1266
H	0.107963017952	0.0896652731404	0.0213617420624	0.1266
H	0.110549564921	0.637621950582	0.0975851509406	0.1266
H	0.146598488005	0.276703919018	0.614651792935	0.1266
H	0.596428650621	0.0436997514836	0.105444179696	0.1266
H	0.586139389111	0.592422751162	0.585180255447	0.1266
H	0.0938086129352	0.118694746061	0.606840941778	0.1266
H	0.0892762849337	0.969210684357	0.751386665276	0.12659
H	0.233131205486	0.482533664317	0.350044601986	0.12659
H	0.646470948833	0.929703316751	0.215836172031	0.1266
H	0.57474835339	0.422000197547	0.811587599587	0.1266
H	0.114074776522	0.487387266587	0.227975235296	0.12659
H	0.617277605119	0.810341885135	0.740132960091	0.1266
H	0.62811588646	0.344174247555	0.375183457124	0.1266
H	0.100261953585	0.889333421305	0.361433023737	0.12659
H	0.23246709187	0.900637350312	0.259467492514	0.12659
H	0.212570702991	0.368735396593	0.758277392245	0.12659
H	0.932084491074	0.179703494309	0.880085665503	0.12659
H	0.446754481382	0.213670685367	0.391686565584	0.12659
H	0.979398905298	0.680409568562	0.200460686609	0.12659
H	0.478135581107	0.715634792818	0.797389648965	0.12659
H	0.4267905519	0.0906635656981	0.270555073962	0.12659
H	0.830270256129	0.211491819901	0.236184763255	0.12659
H	0.334512695903	0.102481820571	0.883250176424	0.12659
H	0.882995742946	0.557971359337	0.740872485577	0.12659
H	0.858267750701	0.0736070763172	0.328841456797	0.12659
H	0.38532484106	0.634800888501	0.368280757794	0.12659
H	0.601177308217	0.658869447199	0.988772680923	0.12659
H	0.69666922491	0.0616135960878	0.512604036178	0.12659
H	0.140619676368	0.746532773701	0.497528785526	0.12659
H	0.237418037559	0.750845021227	0.0917765496086	0.12659
H	0.64073983366	0.204430467661	0.112967852848	0.12659
H	0.745437239022	0.635451286407	0.584230978185	0.12659
H	0.857597373875	0.717029234004	0.794441899855	0.12659
H	0.38338653597	0.702790602196	0.21116036556	0.12659
H	0.346155279967	0.179415204218	0.738497360776	0.12659
H	0.933040870407	0.124289620154	0.720475853383	0.12659
H	0.977934021583	0.648279503571	0.369387349239	0.12659
H	0.452108360462	0.547069779326	0.791939043188	0.12659
H	0.712325212982	0.825746175166	0.873629655995	0.12659
H	0.71988341353	0.328837580139	0.237553240599	0.12659
H	0.113387683221	0.380072672242	0.891602227571	0.12659
H	0.707430796313	0.923516426724	0.371967475593	0.12659
H	0.745547415653	0.413646970855	0.804466084658	0.12659
H	0.199616056477	0.965683742697	0.87795165172	0.12659
H	0.713500311487	0.540275620185	0.0888551475536	0.12659
H	0.597967758991	0.195133302616	0.61336806128	0.12659
H	0.20293218613	0.589330944788	0.59268946596	0.12659
H	0.591983027996	0.0492882282848	0.0133370569512	0.12659
H	0.588864381473	0.583832356507	0.484687386448	0.12659
H	0.122404098383	0.625170173728	0.000852667219315	0.12659
H	0.658160712775	0.833173273456	0.208208038215	0.12659
H	0.5720215353	0.331485648181	0.817298210119	0.12659
H	0.0990847753752	0.879045940357	0.742728010738	0.12659
H	0.214329067001	0.462389492377	0.754023873466	0.12659
H	0.591211440611	0.902691790843	0.743143322038	0.12659
H	0.620475476086	0.438445872041	0.360374348845	0.12659
H	0.885363300536	0.662861853811	0.197370809219	0.12659
H	0.383643960583	0.727326113842	0.795627246126	0.12659
H	0.837421179161	0.172714955779	0.881853651589	0.12659
H	0.972870590925	0.566985710874	0.763996427409	0.12659
H	0.480041274576	0.643739951101	0.366322023798	0.12659
H	0.429242453621	0.0955821341506	0.889096148895	0.12659
H	0.0988766551312	0.101557057251	0.11517215421	0.12659
H	0.145267809031	0.74592384625	0.589634271672	0.12659
H	0.592325937221	0.649114884305	0.0825485176359	0.12659
H	0.680007821124	0.0506186146352	0.605606362304	0.12659
H	0.15230631399	0.257376993932	0.0984509646104	0.12659
H	0.643892960396	0.204393355716	0.0112833858649	0.12659
H	0.750892244912	0.62923147909	0.487225212668	0.12659
H	0.145575986806	0.281923335598	0.514457535649	0.12659
H	0.233783184301	0.749531145699	0.995512992121	0.12659
H	0.079942774062	0.126511774116	0.507033025046	0.12659
H	0.953528381386	0.0806128208826	0.319792336069	0.12659
H	0.437372878456	0.178094684412	0.740232558284	0.12659
H	0.952074338883	0.726596663695	0.809902726335	0.12659
H	0.923257256045	0.231245543612	0.249999495892	0.12659
H	0.474403052744	0.692063320776	0.205640408116	0.12659
H	0.884837549747	0.635420179083	0.365859399209	0.12659
H	0.360355338855	0.561525282347	0.806336025921	0.12659
H	0.351644959728	0.220777554051	0.392615831713	0.12659
H	0.834579970351	0.121397151663	0.72388101586	0.12659
O	0.131386658387	0.0766707342277	0.360182468271	-0.53938
O	0.133742794035	0.55646002239	0.842494756532	-0.53938
O	0.671589958634	1.00196212316	0.774713852499	-0.53938
O	0.721538882369	0.514948092022	0.285771202205	-0.53938
O	0.167303111477	0.0783123283755	0.280731847801	-0.53938
O	0.12177937698	0.784456856937	0.785489724765	-0.53938
O	0.113581134019	0.305770600286	0.281119773067	-0.53938
O	0.701893403413	0.742110391085	0.32720268731	-0.53938
O	0.68590532996	0.229289443394	0.829031145302	-0.53938
O	0.187297111338	0.302726502974	0.327939709995	-0.53938
O	0.0873138319	0.183769594116	0.920190448519	-0.53938
O	0.142905878389	0.706215651942	0.409073668068	-0.53938
O	0.703173758314	0.588832683519	0.901329973062	-0.53938
O	0.677304631327	0.106886655102	0.424682689046	-0.53938
O	0.168645371979	0.157466453537	0.929220233886	-0.53938
O	0.1614516592	0.651550626408	0.179991084413	-0.53938
O	0.098828509976	0.158110403596	0.697701349024	-0.53938
O	0.658231921199	0.151068039372	0.192178119658	-0.53938
O	0.679465471777	0.659709307461	0.666640033663	-0.53938
O	0.16888449257	0.2081630964	0.691879767169	-0.53938
O	0.153047467448	0.0572725893676	0.855138510983	-0.53938
O	0.219503739126	0.570867953056	0.289948701929	-0.53938
O	0.621107861559	0.0105404183215	0.276384773422	-0.53938
O	0.630076178802	0.506858336523	0.773824354922	-0.53938
O	0.136195128873	0.579089479404	0.28673315601	-0.53938
O	0.663223380788	0.730578341216	0.83882960579	-0.53938
O	0.621315590154	0.254235206105	0.329710597157	-0.53938
O	0.147893743261	0.799384349639	0.338410263879	-0.53938
O	0.204182518383	0.809661202792	0.275147583568	-0.53938
O	0.18308797614	0.280229745619	0.797037749988	-0.53938
O	0.0242033644935	0.120495054737	0.7798223997	-0.53938
O	0.522891827845	0.100555709956	0.308262132596	-0.53938
O	0.0640485710339	0.69129896986	0.326760278762	-0.53938
O	0.559866996107	0.658166609402	0.817154943285	-0.53938
O	0.535142053817	0.170253608004	0.354467641884	-0.53938
O	0.764106554272	0.124344559007	0.339793108554	-0.53938
O	0.252481243045	0.136667403433	0.855207941586	-0.53938
O	0.774326857616	0.645612863821	0.73340718388	-0.53938
O	0.750660521488	0.139281513248	0.256258208038	-0.53938
O	0.298953127849	0.721132723254	0.270207942496	-0.53938
O	0.626229223127	0.630051422693	0.902937465471	-0.53938
O	0.628403497573	0.1751791637	0.428875720968	-0.53938
O	0.200142789946	0.641611321287	0.401753207735	-0.53938
O	0.213320710635	0.722077441091	0.184628304931	-0.53938
O	0.591056063637	0.0963083269069	0.197338904172	-0.53938
O	0.644701494301	0.581736156282	0.669843277728	-0.53938
O	0.790046756696	0.60291563381	0.806154852773	-0.53938
O	0.298218759255	0.653691983894	0.324886518025	-0.53938
O	0.258155373811	0.173282201132	0.777849392243	-0.53938
O	0.0175125431543	0.194897706948	0.824802459055	-0.53938
O	0.0670292549735	0.675762049835	0.243075081764	-0.53938
O	0.547672449542	0.591621005791	0.760784920529	-0.53938
O	0.691506682736	0.737741907136	0.758679142063	-0.53938
O	0.683848813987	0.241940185473	0.274080640633	-0.53938
O	0.106874703591	0.287464654887	0.837573681422	-0.53938
O	0.68669096585	0.0215561071383	0.328913996695	-0.53938
O	0.70442071565	0.504264146197	0.816966616589	-0.53938
O	0.135579639278	0.0611626038925	0.771148541	-0.53938
O	0.693468396478	0.579839840816	0.176420164039	-0.53938
O	0.656102211856	0.0772442818894	0.694184741464	-0.53938
O	0.138900043709	0.693180329502	0.681425105738	-0.53938
O	0.649040386035	0.163640970994	0.924766121009	-0.53938
O	0.701449856996	0.652049677772	0.407823609966	-0.53938
O	0.137184056971	0.666049660227	0.91186539344	-0.53938
O	0.690914536366	0.745123932449	0.243802641797	-0.53938
O	0.616939418733	0.238354586092	0.78462638679	-0.53938
O	0.204800123272	0.787250764906	0.807034652607	-0.53938
O	0.179447904617	0.554515101043	0.76906185838	-0.53938
O	0.610086302082	0.996990685648	0.834770122609	-0.53938
O	0.637237262462	0.518498213344	0.29875510201	-0.53938
O	0.793402440804	0.660418033338	0.320817428491	-0.53938
O	0.287840481224	0.693725414516	0.814021498626	-0.53938
O	0.754414847702	0.103541857974	0.773815639341	-0.53938
O	0.0497608299582	0.690183611804	0.767664253467	-0.53938
O	0.571210273295	0.687624403882	0.257570738269	-0.53938
O	0.517826992927	0.0906205644612	0.841462177991	-0.53938
O	0.140159862671	0.192815462572	0.312924140662	-1.03367
O	0.680968343291	0.633069116995	0.286940967819	-1.03367
O	0.637670305514	0.115020893605	0.811958904041	-1.03367
O	0.165291595221	0.669670261188	0.79807913306	-1.03367
O	0.138272713506	0.172882026894	0.812626201364	-1.03367
O	0.6673457088	0.615257991554	0.790280590822	-1.03367
O	0.642872564338	0.127906392834	0.309235537361	-1.03367
O	0.182239516816	0.688425136038	0.294454172102	-1.03367
O	0.159755950285	0.157091873547	0.196707670399	-0.53938
O	0.200484237719	0.634773788534	0.684375939338	-0.53938
O	0.642362676375	0.6490502985	0.168336219666	-0.53938
O	0.623001431011	0.155537673434	0.701585609769	-0.53938
O	0.106828554359	0.222220533289	0.194983152373	-0.53938
O	0.614238952406	0.0852461465533	0.926626489226	-0.53938
O	0.645965049025	0.587549463285	0.394653146426	-0.53938
O	0.0866579940344	0.177241642536	0.422299953595	-0.53938
O	0.21280468313	0.700430520822	0.9042057347	-0.53938
O	0.158538937576	0.225826721108	0.425594978673	-0.53938
O	0.0169989182763	0.215060948918	0.282504616326	-0.53938
O	0.525059033985	0.158434099017	0.787239766962	-0.53938
O	0.0489733319337	0.63439174788	0.832961166157	-0.53938
O	0.0271796295461	0.138265223074	0.318526064288	-0.53938
O	0.559156424607	0.612089295789	0.295286487206	-0.53938
O	0.799493377914	0.608291275552	0.252768487658	-0.53938
O	0.277931315935	0.614725622153	0.783919490099	-0.53938
O	0.25647330765	0.159146447248	0.287349378832	-0.53938
O	0.752614590709	0.127736220322	0.852902450471	-0.53938
O	0.259924714099	0.212499521666	0.357188898174	-0.53938
Zn	0.179729370561	0.155858139547	0.273663693739	0.95676
Zn	0.181609597135	0.231374315828	0.354989229094	0.95676
Zn	0.128204879872	0.634210647239	0.844085547452	0.95676
Zn	0.720741511409	0.586373713502	0.253136079326	0.95676
Zn	0.678719067943	0.155248669683	0.85441815609	0.95676
Zn	0.681555322047	0.0768847363314	0.768984262056	0.95676
Zn	0.125611885333	0.710918187905	0.759565204718	0.95676
Zn	0.718266381901	0.670143635914	0.334246688626	0.95676
Zn	0.0925585180005	0.21022476906	0.845360235481	0.95676
Zn	0.715131968494	0.580297408086	0.828373010368	0.95676
Zn	0.689824246917	0.0946657379201	0.349389621564	0.95676
Zn	0.205198518763	0.624093232664	0.759214612828	0.95676
Zn	0.173309995352	0.132507431325	0.858400367454	0.95676
Zn	0.140638603386	0.64638227669	0.25525249187	0.95676
Zn	0.675350498118	0.16394990497	0.263383033737	0.95676
Zn	0.185226069468	0.207234081836	0.771370538458	0.95676
Zn	0.221859845766	0.642783752288	0.327624136247	0.95676
Zn	0.594513634899	0.08535087725	0.277530705098	0.95676
Zn	0.624355542603	0.580706782382	0.747922787065	0.95676
Zn	0.633920684695	0.66020759859	0.830644528615	0.95676
Zn	0.614107401377	0.177501991587	0.351537861786	0.95676
Zn	0.134249122582	0.722269864306	0.334617780165	0.95676
Zn	0.649135165086	0.677317688489	0.241016798509	0.95676
Zn	0.220925246313	0.733403206049	0.261285036669	0.95676
Zn	0.101196301863	0.130613698377	0.77258390907	0.95676
Zn	0.697114750939	0.662303612327	0.743721032923	0.95676
Zn	0.599490480828	0.164611265666	0.77693246884	0.95676
Zn	0.0949031996075	0.229767825747	0.271979542261	0.95676
Zn	0.592959721394	0.0732352972503	0.849379606169	0.95676
Zn	0.631291638678	0.591082058876	0.317732602823	0.95676
Zn	0.0958898105172	0.14799140752	0.35113642405	0.95676
Zn	0.21061012969	0.712707317184	0.83027260208	0.95676
